[General]
network = filecachingd2d.networks.BasicNetwork
cmdenv-config-name = Global
cmdenv-runs-to-execute = 0..99
cmdenv-status-frequency = 10s
output-vector-file = "${resultdir}/${configname}-${runnumber}.vec"
output-scalar-file = "${resultdir}/${configname}-${runnumber}.sca"
repeat = 100
result-dir = results
sim-time-limit = 1000s
warmup-period = 10s
**.statistic-recording = true
**.vector-recording = true
