[General]
network = filecachingd2d.networks.BasicNetwork
cmdenv-config-name = Global
cmdenv-runs-to-execute = 0..99
cmdenv-status-frequency = 10s
output-vector-file = "${resultdir}/${configname}-${runnumber}-${speed}-${fileSize}.vec"
output-scalar-file = "${resultdir}/${configname}-${runnumber}-${speed}-${fileSize}.sca"
repeat = 100
result-dir = results
sim-time-limit = 1000s
warmup-period = 10s
**.statistic-recording = true
**.vector-recording = true

BasicNetwork.velocityMax = ${speed=0, 1, 2, 3, 4, 5, 6, 7, 8, 9, 10, 11, 12, 13, 14, 15}
BasicNetwork.fileSize = ${fileSize=20000, 40000, 80000, 160000}